
This summary information was generated by ElastoDyn (v1.04.00a-bjj, 26-Jul-2016) on 14-Dec-2024 at 17:11:21.


Turbine features:

            Upwind, three-bladed rotor with rigid hub.
            The model has 16 of 24 DOFs active (enabled) at start-up.
 Disabled   Platform horizontal surge translation DOF 
 Disabled   Platform horizontal sway translation DOF 
 Disabled   Platform vertical heave translation DOF 
 Disabled   Platform roll tilt rotation DOF 
 Disabled   Platform pitch tilt rotation DOF 
 Disabled   Platform yaw rotation DOF 
 Enabled    1st tower fore-aft bending mode DOF 
 Enabled    1st tower side-to-side bending mode DOF 
 Enabled    2nd tower fore-aft bending mode DOF 
 Enabled    2nd tower side-to-side bending mode DOF 
 Enabled    Nacelle yaw DOF 
 Disabled   Rotor-furl DOF 
 Enabled    Variable speed generator DOF 
 Enabled    Drivetrain rotational-flexibility DOF 
 Disabled   Tail-furl DOF 
 Enabled    1st flapwise bending-mode DOF of blade 1 
 Enabled    1st edgewise bending-mode DOF of blade 1 
 Enabled    2nd flapwise bending-mode DOF of blade 1 
 Enabled    1st flapwise bending-mode DOF of blade 2 
 Enabled    1st edgewise bending-mode DOF of blade 2 
 Enabled    2nd flapwise bending-mode DOF of blade 2 
 Enabled    1st flapwise bending-mode DOF of blade 3 
 Enabled    1st edgewise bending-mode DOF of blade 3 
 Enabled    2nd flapwise bending-mode DOF of blade 3 


Time steps:

    Structural            (s)        0.01000000


Some calculated parameters:

    Hub-Height            (m)           136.269
    Flexible Tower Length (m)           129.390
    Flexible Blade Length (m)           117.000


Rotor mass properties:

    Rotor Mass            (kg)       285387.375
    Rotor Inertia         (kg-m^2)371713280.000
                                        Blade 1      Blade 2      Blade 3
                                        -------      -------      -------
    Mass                  (kg)        72009.125    72009.125    72009.125
    Second Mass Moment    (kg-m^2)107125576.000107125576.000107125576.000
    First Mass Moment     (kg-m)    2004725.000  2004725.000  2004725.000
    Center of Mass        (m)            27.840       27.840       27.840


Additional mass properties:

    Tower-top Mass        (kg)       932287.375
    Tower Mass            (kg)       852734.812
    Platform Mass         (kg)            0.000
    Mass Incl. Platform   (kg)      1785022.250


Interpolated tower properties:

Node  TwFract   HNodes  DHNodes  TMassDen    FAStiff    SSStiff
 (-)      (-)      (m)      (m)    (kg/m)     (Nm^2)     (Nm^2)
   1    0.025    3.235    6.470 10314.844  3.065E+12  3.065E+12
   2    0.075    9.704    6.470 10314.844  3.065E+12  3.065E+12
   3    0.125   16.174    6.470  9506.557  2.817E+12  2.817E+12
   4    0.175   22.643    6.470  9471.354  2.786E+12  2.786E+12
   5    0.225   29.113    6.470  8658.932  2.482E+12  2.482E+12
   6    0.275   35.582    6.470  8446.035  2.304E+12  2.304E+12
   7    0.325   42.052    6.470  7822.553  2.017E+12  2.017E+12
   8    0.375   48.521    6.470  7566.310  1.826E+12  1.826E+12
   9    0.425   54.991    6.470  6960.990  1.564E+12  1.564E+12
  10    0.475   61.460    6.470  6687.708  1.388E+12  1.388E+12
  11    0.525   67.930    6.470  6066.443  1.154E+12  1.154E+12
  12    0.575   74.399    6.470  5777.462  9.983E+11  9.983E+11
  13    0.625   80.869    6.470  5177.829  8.186E+11  8.186E+11
  14    0.675   87.338    6.470  5007.025  7.407E+11  7.407E+11
  15    0.725   93.808    6.470  4312.307  6.063E+11  6.063E+11
  16    0.775  100.277    6.470  4261.866  5.853E+11  5.853E+11
  17    0.825  106.747    6.470  3653.112  4.899E+11  4.899E+11
  18    0.875  113.216    6.470  3605.283  4.710E+11  4.710E+11
  19    0.925  119.686    6.470  4110.334  5.254E+11  5.254E+11
  20    0.975  126.155    6.470  4086.670  5.164E+11  5.164E+11


Interpolated blade 1 properties:

Node  BlFract   RNodes  DRNodes PitchAxis  StrcTwst  BMassDen    FlpStff    EdgStff
 (-)      (-)      (m)      (m)       (-)     (deg)    (kg/m)     (Nm^2)     (Nm^2)
   1    0.029    7.411    6.882     0.419    15.510  2852.219  1.315E+11  1.312E+11
   2    0.088   14.294    6.882     0.389    13.980  1842.199  6.890E+10  8.119E+10
   3    0.147   21.176    6.882     0.375    11.184  1145.743  3.403E+10  5.436E+10
   4    0.206   28.058    6.882     0.375     8.488   680.724  2.433E+10  3.751E+10
   5    0.265   34.941    6.882     0.375     6.570   539.514  1.638E+10  3.038E+10
   6    0.324   41.823    6.882     0.375     4.877   510.590  1.350E+10  2.586E+10
   7    0.382   48.705    6.882     0.375     3.552   487.882  9.732E+09  2.173E+10
   8    0.441   55.588    6.882     0.375     2.535   461.289  7.683E+09  1.861E+10
   9    0.500   62.470    6.882     0.375     1.694   429.546  5.280E+09  1.570E+10
  10    0.559   69.352    6.882     0.375     0.980   395.959  3.744E+09  1.266E+10
  11    0.618   76.235    6.882     0.375     0.385   329.025  2.520E+09  7.124E+09
  12    0.676   83.117    6.882     0.375    -0.207   268.379  1.711E+09  3.439E+09
  13    0.735   89.999    6.882     0.375    -1.009   213.058  9.858E+08  2.049E+09
  14    0.794   96.882    6.882     0.375    -1.861   145.322  5.136E+08  1.043E+09
  15    0.853  103.764    6.882     0.375    -2.173    86.026  2.376E+08  5.142E+08
  16    0.912  110.646    6.882     0.375    -2.046    50.113  9.168E+07  2.460E+08
  17    0.971  117.529    6.882     0.375    -1.604    25.282  1.935E+07  8.448E+07


Interpolated blade 2 properties:

Node  BlFract   RNodes  DRNodes PitchAxis  StrcTwst  BMassDen    FlpStff    EdgStff
 (-)      (-)      (m)      (m)       (-)     (deg)    (kg/m)     (Nm^2)     (Nm^2)
   1    0.029    7.411    6.882     0.419    15.510  2852.219  1.315E+11  1.312E+11
   2    0.088   14.294    6.882     0.389    13.980  1842.199  6.890E+10  8.119E+10
   3    0.147   21.176    6.882     0.375    11.184  1145.743  3.403E+10  5.436E+10
   4    0.206   28.058    6.882     0.375     8.488   680.724  2.433E+10  3.751E+10
   5    0.265   34.941    6.882     0.375     6.570   539.514  1.638E+10  3.038E+10
   6    0.324   41.823    6.882     0.375     4.877   510.590  1.350E+10  2.586E+10
   7    0.382   48.705    6.882     0.375     3.552   487.882  9.732E+09  2.173E+10
   8    0.441   55.588    6.882     0.375     2.535   461.289  7.683E+09  1.861E+10
   9    0.500   62.470    6.882     0.375     1.694   429.546  5.280E+09  1.570E+10
  10    0.559   69.352    6.882     0.375     0.980   395.959  3.744E+09  1.266E+10
  11    0.618   76.235    6.882     0.375     0.385   329.025  2.520E+09  7.124E+09
  12    0.676   83.117    6.882     0.375    -0.207   268.379  1.711E+09  3.439E+09
  13    0.735   89.999    6.882     0.375    -1.009   213.058  9.858E+08  2.049E+09
  14    0.794   96.882    6.882     0.375    -1.861   145.322  5.136E+08  1.043E+09
  15    0.853  103.764    6.882     0.375    -2.173    86.026  2.376E+08  5.142E+08
  16    0.912  110.646    6.882     0.375    -2.046    50.113  9.168E+07  2.460E+08
  17    0.971  117.529    6.882     0.375    -1.604    25.282  1.935E+07  8.448E+07


Interpolated blade 3 properties:

Node  BlFract   RNodes  DRNodes PitchAxis  StrcTwst  BMassDen    FlpStff    EdgStff
 (-)      (-)      (m)      (m)       (-)     (deg)    (kg/m)     (Nm^2)     (Nm^2)
   1    0.029    7.411    6.882     0.419    15.510  2852.219  1.315E+11  1.312E+11
   2    0.088   14.294    6.882     0.389    13.980  1842.199  6.890E+10  8.119E+10
   3    0.147   21.176    6.882     0.375    11.184  1145.743  3.403E+10  5.436E+10
   4    0.206   28.058    6.882     0.375     8.488   680.724  2.433E+10  3.751E+10
   5    0.265   34.941    6.882     0.375     6.570   539.514  1.638E+10  3.038E+10
   6    0.324   41.823    6.882     0.375     4.877   510.590  1.350E+10  2.586E+10
   7    0.382   48.705    6.882     0.375     3.552   487.882  9.732E+09  2.173E+10
   8    0.441   55.588    6.882     0.375     2.535   461.289  7.683E+09  1.861E+10
   9    0.500   62.470    6.882     0.375     1.694   429.546  5.280E+09  1.570E+10
  10    0.559   69.352    6.882     0.375     0.980   395.959  3.744E+09  1.266E+10
  11    0.618   76.235    6.882     0.375     0.385   329.025  2.520E+09  7.124E+09
  12    0.676   83.117    6.882     0.375    -0.207   268.379  1.711E+09  3.439E+09
  13    0.735   89.999    6.882     0.375    -1.009   213.058  9.858E+08  2.049E+09
  14    0.794   96.882    6.882     0.375    -1.861   145.322  5.136E+08  1.043E+09
  15    0.853  103.764    6.882     0.375    -2.173    86.026  2.376E+08  5.142E+08
  16    0.912  110.646    6.882     0.375    -2.046    50.113  9.168E+07  2.460E+08
  17    0.971  117.529    6.882     0.375    -1.604    25.282  1.935E+07  8.448E+07


Requested Outputs:


  Col  Parameter  Units
  ---  ---------  -----
   0   Time       (s)       
   1   OoPDefl1   (m)       
   2   OoPDefl2   (m)       
   3   OoPDefl3   (m)       
   4   IPDefl1    (m)       
   5   IPDefl2    (m)       
   6   IPDefl3    (m)       
   7   NcIMUTAxs  (m/s^2)   
   8   NcIMUTAys  (m/s^2)   
   9   NcIMUTAzs  (m/s^2)   
  10   RootMOoP1  (kN·m)    
  11   RootMOoP2  (kN·m)    
  12   RootMOoP3  (kN·m)    
  13   RootMIP1   (kN·m)    
  14   RootMIP2   (kN·m)    
  15   RootMIP3   (kN·m)    
  16   RootMFlp1  (kN·m)    
  17   RootMFlp2  (kN·m)    
  18   RootMFlp3  (kN·m)    
  19   RootMEdg1  (kN·m)    
  20   RootMEdg2  (kN·m)    
  21   RootMEdg3  (kN·m)    
  22   TwrBsMxt   (kN·m)    
  23   TwrBsMyt   (kN·m)    
  24   TwrBsMzt   (kN·m)    
  25   LSSTipMya  (kN·m)    
  26   LSSTipMza  (kN·m)    
  27   LSSTipVxa  (rpm)     
  28   GenSpeed   (rpm)     
  29   BlPitch1   (deg)     
  30   Azimuth    (deg)     
  31   RotPwr     (kW)      
  32   RotThrust  (kN)      
  33   RotSpeed   (rpm)     
  34   HSShftTq   (kN·m)    
